Version 4
SHEET 1 1164 680
WIRE 832 -128 800 -128
WIRE 960 -128 912 -128
WIRE 544 -48 496 -48
WIRE 656 -48 624 -48
WIRE 656 32 656 -48
WIRE 704 32 656 32
WIRE 800 32 800 -128
WIRE 800 32 784 32
WIRE 832 32 800 32
WIRE 560 48 560 16
WIRE 960 48 960 -128
WIRE 960 48 896 48
WIRE 1024 48 960 48
WIRE 496 64 496 -48
WIRE 496 64 352 64
WIRE 528 64 496 64
WIRE 832 64 816 64
WIRE 656 80 656 32
WIRE 656 80 592 80
WIRE 352 96 352 64
WIRE 352 96 320 96
WIRE 528 96 496 96
WIRE 0 112 0 96
WIRE 0 128 0 112
WIRE 80 128 80 96
WIRE 496 128 496 96
WIRE 864 128 864 80
WIRE 560 144 560 112
WIRE 816 144 816 64
WIRE 816 144 784 144
WIRE 496 160 496 128
WIRE 272 176 208 176
WIRE 208 224 208 176
WIRE 0 240 0 208
WIRE 80 240 80 208
WIRE 320 240 320 192
WIRE 208 352 208 304
FLAG 80 240 0
FLAG 0 240 0
FLAG 208 352 0
FLAG 320 240 0
FLAG 816 224 0
FLAG 496 240 0
FLAG 1024 48 V_OUT
IOPIN 1024 48 Out
FLAG 704 144 +V
FLAG 416 128 +V
FLAG 560 16 +V
FLAG 864 16 +V
FLAG 864 128 -V
FLAG 560 144 -V
FLAG 0 112 -V
FLAG 80 96 +V
SYMBOL voltage 80 112 R0
WINDOW 123 0 0 Left 0
WINDOW 39 0 0 Left 0
SYMATTR InstName V1
SYMATTR Value 5
SYMBOL voltage 0 112 R0
WINDOW 123 0 0 Left 0
WINDOW 39 0 0 Left 0
SYMATTR InstName V2
SYMATTR Value -1
SYMBOL voltage 208 208 R0
WINDOW 123 0 0 Left 0
WINDOW 39 0 0 Left 0
SYMATTR InstName V3
SYMATTR Value SINE(2 1 100)
SYMBOL nmos 272 96 R0
SYMATTR InstName M1
SYMBOL OpAmps\\LT1007 560 16 R0
SYMATTR InstName U1
SYMBOL OpAmps\\LT1007 864 -16 R0
SYMATTR InstName U2
SYMBOL res 800 16 R90
WINDOW 0 0 56 VBottom 2
WINDOW 3 32 56 VTop 2
SYMATTR InstName R1
SYMATTR Value 1K
SYMBOL res 800 128 R90
WINDOW 0 0 56 VBottom 2
WINDOW 3 32 56 VTop 2
SYMATTR InstName R2
SYMATTR Value 3K
SYMBOL res 512 256 R180
WINDOW 0 36 76 Left 2
WINDOW 3 36 40 Left 2
SYMATTR InstName R4
SYMATTR Value 3.5K
SYMBOL res 528 -32 R270
WINDOW 0 32 56 VTop 2
WINDOW 3 0 56 VBottom 2
SYMATTR InstName R5
SYMATTR Value 10K
SYMBOL res 400 144 R270
WINDOW 0 32 56 VTop 2
WINDOW 3 0 56 VBottom 2
SYMATTR InstName R6
SYMATTR Value 3K
SYMBOL res 800 128 R0
SYMATTR InstName R3
SYMATTR Value 5K
SYMBOL res 928 -144 R90
WINDOW 0 0 56 VBottom 2
WINDOW 3 32 56 VTop 2
SYMATTR InstName R7
SYMATTR Value 3K
TEXT -64 64 Left 2 !.tran 100m
